Version 4
SHEET 1 880 680
WIRE 240 -240 112 -240
WIRE 112 -208 112 -240
WIRE 160 -48 96 -48
WIRE 240 -48 224 -48
WIRE 272 -48 240 -48
WIRE 96 -32 96 -48
WIRE 272 -16 272 -48
WIRE 96 64 96 48
WIRE 240 64 240 -48
WIRE 240 64 96 64
WIRE 352 80 16 80
WIRE 272 112 272 48
WIRE -16 128 -80 128
WIRE 96 128 96 64
WIRE 16 144 16 80
WIRE 64 144 16 144
WIRE 208 160 128 160
WIRE -16 176 -16 128
WIRE 64 176 -16 176
WIRE 272 224 272 208
WIRE 352 224 352 80
WIRE 352 224 272 224
WIRE -80 240 -80 208
WIRE 96 256 96 192
WIRE 272 256 272 224
WIRE 288 256 272 256
WIRE 288 384 288 336
FLAG 96 256 0
FLAG -80 240 0
FLAG 160 -48 0
FLAG 288 384 0
FLAG 112 -128 0
SYMBOL npn 208 112 R0
SYMATTR InstName Q1
SYMBOL res 272 240 R0
SYMATTR InstName R1
SYMATTR Value 450
SYMBOL voltage 96 64 R180
WINDOW 0 24 96 Left 2
WINDOW 3 24 16 Left 2
WINDOW 123 0 0 Left 0
WINDOW 39 0 0 Left 0
SYMATTR InstName V1
SYMATTR Value 20
SYMBOL voltage -80 112 R0
WINDOW 123 24 124 Left 2
WINDOW 39 0 0 Left 0
SYMATTR InstName V2
SYMATTR Value SINE(1.65 1.65 1)
SYMBOL LED 256 -16 R0
SYMATTR InstName D1
SYMATTR Value AOT-2015
SYMBOL voltage 112 -224 R0
WINDOW 123 0 0 Left 0
WINDOW 39 0 0 Left 0
SYMATTR InstName V3
SYMATTR Value 5
SYMBOL OpAmps\\OP292 96 96 R0
WINDOW 3 23 104 Left 2
SYMATTR InstName U2
TEXT -114 408 Left 2 !.tran 100
